[General]
network = Simulation01
record-eventlog = true

sim-time-limit = 3600s
cpu-time-limit = 3600s
total-stack = 7MiB  # increase if necessary
cmdenv-express-mode = true
cmdenv-event-banners = true
cmdenv-performance-display = false

[Config Run1]
*.create1.datatype = "car1"
*.create1.initialTime = 0s
*.create1.intervalTime = exponential(9.0s)
*.create2.datatype = "car2"
*.create2.initialTime = 0s
*.create2.intervalTime = exponential(12.0s)
*.create3.datatype = "signal"
*.create3.initialTime = 55.0s
*.create3.intervalTime = 9999s
*.assign1.datakind = 1
*.assign2.datakind = 2
*.open1.intervalTime = 60.0s
*.close1.intervalTime = 55.0s
*.open2.intervalTime = 45.0s
*.close2.intervalTime = 55.0s
*.open1.gatename = "signal1"
*.close1.gatename = "signal1"
*.open2.gatename = "signal2"
*.close2.gatename = "signal2"
*.open1.action = "open"
*.close1.action = "close"
*.open2.action = "open"
*.close2.action = "close"
